Version 4
SHEET 1 3036 1456
WIRE 1824 880 1600 880
WIRE 1872 880 1824 880
WIRE 1984 880 1952 880
WIRE 2032 880 1984 880
WIRE 2160 880 2096 880
WIRE 2288 880 2160 880
WIRE 2384 880 2288 880
WIRE 2400 880 2384 880
WIRE 1600 896 1600 880
WIRE 2400 896 2400 880
WIRE 1824 944 1824 880
WIRE 2160 960 2160 880
WIRE 2384 960 2384 880
WIRE 2288 976 2288 880
WIRE 1984 1024 1984 880
WIRE 1984 1024 1952 1024
WIRE 2160 1088 2160 1040
WIRE 2160 1088 1952 1088
WIRE 2160 1104 2160 1088
WIRE 1968 1152 1952 1152
WIRE 2064 1152 2048 1152
WIRE 2064 1168 2064 1152
WIRE 1600 1296 1600 976
WIRE 1824 1296 1824 1232
WIRE 1824 1296 1600 1296
WIRE 2064 1296 2064 1232
WIRE 2064 1296 1824 1296
WIRE 2160 1296 2160 1184
WIRE 2160 1296 2064 1296
WIRE 2288 1296 2288 1040
WIRE 2288 1296 2160 1296
WIRE 2384 1296 2384 1040
WIRE 2384 1296 2288 1296
WIRE 2064 1328 2064 1296
FLAG 2400 880 OUT
IOPIN 2400 880 Out
FLAG 1600 880 IN
IOPIN 1600 880 In
FLAG 2064 1328 0
SYMBOL ind 1856 896 R270
WINDOW 0 32 56 VTop 2
WINDOW 3 5 56 VBottom 2
SYMATTR InstName L1
SYMATTR Value 330µ
SYMATTR SpiceLine Rser=0.02 Rpar=5000
SYMBOL RES 2144 944 R0
SYMATTR InstName R1
SYMATTR Value 15k
SYMBOL RES 2144 1088 R0
SYMATTR InstName R2
SYMATTR Value 1.3k
SYMBOL RES 1952 1168 R270
WINDOW 0 32 56 VTop 2
WINDOW 3 0 56 VBottom 2
SYMATTR InstName R3
SYMATTR Value 1K
SYMBOL polcap 2272 976 R0
SYMATTR InstName C1
SYMATTR Value 47µ
SYMATTR SpiceLine Rser=50m
SYMBOL CAP 2048 1168 R0
SYMATTR InstName C3
SYMATTR Value 10n
SYMBOL VOLTAGE 1600 880 R0
WINDOW 123 0 0 Left 0
WINDOW 39 0 0 Left 0
WINDOW 0 38 50 Left 2
SYMATTR InstName V1
SYMATTR Value 12
SYMBOL POWERPRODUCTS\\LT1070 1824 1088 R0
SYMATTR InstName U1
SYMBOL res 2368 944 R0
SYMATTR InstName Rload
SYMATTR Value 50
SYMBOL ZZZ\\ZENER\\Zener_DiodesInc\\1N4746A 2032 896 R270
WINDOW 0 36 32 VTop 2
WINDOW 3 -4 32 VBottom 2
SYMATTR InstName D1
TEXT 2616 1016 Left 2 !.tran 10m steady
TEXT 2608 832 Left 2 !.meas Pin AVG V(in)*-I(V1)
TEXT 2608 888 Left 2 !.meas Pout AVG V(out)*I(Rload)
TEXT 2608 936 Left 2 !.meas HieuSuat AVG (Pout/Pin)*100
TEXT 2616 1048 Left 2 !.param D = 0.6
TEXT 2616 1096 Left 2 !.param T = 40u
