Version 4
SHEET 1 1496 680
WIRE 416 48 336 48
WIRE 528 48 416 48
WIRE 832 48 784 48
WIRE 960 48 832 48
WIRE 1040 48 960 48
WIRE 224 80 64 80
WIRE -144 112 -176 112
WIRE -32 112 -144 112
WIRE 416 144 416 48
WIRE -144 160 -144 112
WIRE -32 160 -32 112
WIRE 64 160 64 80
WIRE 224 160 224 80
WIRE 224 160 208 160
WIRE 240 160 224 160
WIRE 960 160 960 48
WIRE 144 192 144 160
WIRE 144 192 96 192
WIRE 304 192 304 160
WIRE 336 192 336 48
WIRE 336 192 304 192
WIRE 832 192 832 48
WIRE 144 240 144 192
WIRE 224 240 208 240
WIRE 240 240 224 240
WIRE 304 240 304 192
WIRE -144 304 -144 240
WIRE -32 304 -32 240
WIRE -32 304 -144 304
WIRE 64 336 64 240
WIRE 224 336 224 240
WIRE 224 336 64 336
WIRE 96 368 96 192
WIRE 416 368 416 208
WIRE 416 368 96 368
WIRE 656 368 656 144
WIRE 656 368 416 368
WIRE 832 368 832 256
WIRE 832 368 656 368
WIRE 960 368 960 240
WIRE 960 368 832 368
WIRE 656 416 656 368
FLAG 656 416 0
FLAG -176 112 Vin
FLAG 1040 48 Vout
SYMBOL voltage -144 144 R0
WINDOW 3 -23 279 Left 2
WINDOW 123 0 0 Left 0
WINDOW 39 0 0 Left 0
SYMATTR Value SINE(0 SINE(0 {220*sqrt(2)} 50))
SYMATTR InstName V1
SYMBOL ind2 -48 144 R0
SYMATTR InstName L1
SYMATTR Value 50
SYMATTR Type ind
SYMATTR SpiceLine Rser=50
SYMBOL ind2 80 144 M0
WINDOW 3 -21 -7 Left 2
SYMATTR Value 0.074
SYMATTR InstName L2
SYMATTR Type ind
SYMBOL diode 144 176 R270
WINDOW 0 32 32 VTop 2
WINDOW 3 0 32 VBottom 2
SYMATTR InstName D1
SYMBOL diode 240 176 R270
WINDOW 0 32 32 VTop 2
WINDOW 3 0 32 VBottom 2
SYMATTR InstName D2
SYMBOL diode 144 256 R270
WINDOW 0 32 32 VTop 2
WINDOW 3 0 32 VBottom 2
SYMATTR InstName D3
SYMBOL diode 240 256 R270
WINDOW 0 32 32 VTop 2
WINDOW 3 0 32 VBottom 2
SYMATTR InstName D4
SYMBOL polcap 400 144 R0
SYMATTR InstName C1
SYMATTR Value 250µ
SYMBOL res 944 144 R0
SYMATTR InstName R1
SYMATTR Value 1k
SYMBOL PowerProducts\\LT1085-5 656 48 R0
SYMATTR InstName U1
SYMBOL polcap 816 192 R0
SYMATTR InstName C2
SYMATTR Value 250µ
SYMBOL PowerProducts\\RH117H 656 -352 R0
SYMATTR InstName U2
TEXT -72 312 Left 2 !K1 L1 L2 1
TEXT -168 456 Left 2 !.tran 1
